2
Iteration 0 Energy -1.11690056
H        0.0000000000    0.0000000000    0.3685830000
H        0.0000000000    0.0000000000   -0.3685830000
2
Iteration 1 Energy -1.11742855
H        0.0000000000    0.0000000000    0.3518054027
H        0.0000000000    0.0000000000   -0.3518054027
2
Iteration 2 Energy -1.11750544
H        0.0000000000    0.0000000000    0.3564447343
H        0.0000000000    0.0000000000   -0.3564447343
2
Iteration 3 Energy -1.11750588
H        0.0000000000    0.0000000000    0.3561234505
H        0.0000000000    0.0000000000   -0.3561234505
